data_image0
_cell_length_a       9.98589
_cell_length_b       9.98589
_cell_length_c       15.0927
_cell_angle_alpha    89.9998
_cell_angle_beta     90.0002
_cell_angle_gamma    104.944

_symmetry_space_group_name_H-M    "P 1"
_symmetry_int_tables_number       1

loop_
  _symmetry_equiv_pos_as_xyz
  'x, y, z'

loop_
  _atom_site_label
  _atom_site_occupancy
  _atom_site_fract_x
  _atom_site_fract_y
  _atom_site_fract_z
  _atom_site_thermal_displace_type
  _atom_site_B_iso_or_equiv
  _atom_site_type_symbol
  Fe1      1.0000 0.25000  0.75000  0.61548  Biso   1.000  Fe
  Fe2      1.0000 0.75000  0.25000  0.38452  Biso   1.000  Fe
  H1       1.0000 0.07966  0.57966  0.75389  Biso   1.000  H
  H2       1.0000 0.42034  0.92035  0.75389  Biso   1.000  H
  H3       1.0000 0.92034  0.42034  0.24611  Biso   1.000  H
  H4       1.0000 0.57965  0.07965  0.24611  Biso   1.000  H
  H5       1.0000 0.07176  0.57176  0.91819  Biso   1.000  H
  H6       1.0000 0.42824  0.92824  0.91819  Biso   1.000  H
  H7       1.0000 0.92824  0.42824  0.08181  Biso   1.000  H
  H8       1.0000 0.57176  0.07176  0.08181  Biso   1.000  H
  H9       1.0000 0.07227  0.57227  0.31323  Biso   1.000  H
  H10      1.0000 0.42773  0.92773  0.31323  Biso   1.000  H
  H11      1.0000 0.92773  0.42773  0.68677  Biso   1.000  H
  H12      1.0000 0.57227  0.07227  0.68677  Biso   1.000  H
  H13      1.0000 0.07990  0.57990  0.47730  Biso   1.000  H
  H14      1.0000 0.42010  0.92010  0.47729  Biso   1.000  H
  H15      1.0000 0.92010  0.42010  0.52271  Biso   1.000  H
  H16      1.0000 0.57990  0.07990  0.52271  Biso   1.000  H
  Au1      1.0000 0.25000  0.25000  0.60636  Biso   1.000  Au
  Au2      1.0000 0.25000  0.25000  0.39364  Biso   1.000  Au
  Au3      1.0000 0.75000  0.75000  0.39363  Biso   1.000  Au
  Au4      1.0000 0.75000  0.75000  0.60636  Biso   1.000  Au
  C1       1.0000 0.23317  0.44142  0.61071  Biso   1.000  C
  C2       1.0000 0.26683  0.05858  0.61072  Biso   1.000  C
  C3       1.0000 0.05857  0.26683  0.38928  Biso   1.000  C
  C4       1.0000 0.44142  0.23317  0.38928  Biso   1.000  C
  C5       1.0000 0.76684  0.55858  0.38928  Biso   1.000  C
  C6       1.0000 0.73317  0.94142  0.38928  Biso   1.000  C
  C7       1.0000 0.94142  0.73317  0.61071  Biso   1.000  C
  C8       1.0000 0.55857  0.76683  0.61072  Biso   1.000  C
  C9       1.0000 0.15478  0.65478  0.79272  Biso   1.000  C
  C10      1.0000 0.34522  0.84522  0.79272  Biso   1.000  C
  C11      1.0000 0.84522  0.34522  0.20728  Biso   1.000  C
  C12      1.0000 0.65478  0.15478  0.20728  Biso   1.000  C
  C13      1.0000 0.15104  0.65104  0.88463  Biso   1.000  C
  C14      1.0000 0.34896  0.84896  0.88463  Biso   1.000  C
  C15      1.0000 0.84896  0.34895  0.11537  Biso   1.000  C
  C16      1.0000 0.65104  0.15104  0.11537  Biso   1.000  C
  C17      1.0000 0.25000  0.75000  0.93240  Biso   1.000  C
  C18      1.0000 0.75000  0.25000  0.06760  Biso   1.000  C
  C19      1.0000 0.25000  0.75000  0.02997  Biso   1.000  C
  C20      1.0000 0.75000  0.25000  0.97004  Biso   1.000  C
  C21      1.0000 0.25000  0.75000  0.20132  Biso   1.000  C
  C22      1.0000 0.75000  0.25000  0.79868  Biso   1.000  C
  C23      1.0000 0.25000  0.75000  0.29879  Biso   1.000  C
  C24      1.0000 0.75000  0.25000  0.70121  Biso   1.000  C
  C25      1.0000 0.15132  0.65132  0.34659  Biso   1.000  C
  C26      1.0000 0.34868  0.84868  0.34659  Biso   1.000  C
  C27      1.0000 0.84868  0.34868  0.65341  Biso   1.000  C
  C28      1.0000 0.65132  0.15132  0.65341  Biso   1.000  C
  C29      1.0000 0.15484  0.65484  0.43836  Biso   1.000  C
  C30      1.0000 0.34516  0.84517  0.43836  Biso   1.000  C
  C31      1.0000 0.84516  0.34517  0.56164  Biso   1.000  C
  C32      1.0000 0.65483  0.15483  0.56164  Biso   1.000  C
  N1       1.0000 0.22927  0.55753  0.61423  Biso   1.000  N
  N2       1.0000 0.27073  0.94247  0.61423  Biso   1.000  N
  N3       1.0000 0.94247  0.27073  0.38577  Biso   1.000  N
  N4       1.0000 0.55753  0.22927  0.38577  Biso   1.000  N
  N5       1.0000 0.77073  0.44247  0.38577  Biso   1.000  N
  N6       1.0000 0.72927  0.05753  0.38577  Biso   1.000  N
  N7       1.0000 0.05753  0.72927  0.61423  Biso   1.000  N
  N8       1.0000 0.44247  0.77073  0.61423  Biso   1.000  N
  N9       1.0000 0.25000  0.75000  0.74661  Biso   1.000  N
  N10      1.0000 0.75000  0.25000  0.25340  Biso   1.000  N
  N11      1.0000 0.15169  0.65168  0.07204  Biso   1.000  N
  N12      1.0000 0.34832  0.84832  0.07204  Biso   1.000  N
  N13      1.0000 0.84832  0.34832  0.92796  Biso   1.000  N
  N14      1.0000 0.65168  0.15168  0.92796  Biso   1.000  N
  N15      1.0000 0.15169  0.65169  0.15933  Biso   1.000  N
  N16      1.0000 0.34831  0.84831  0.15933  Biso   1.000  N
  N17      1.0000 0.84831  0.34831  0.84068  Biso   1.000  N
  N18      1.0000 0.65169  0.15169  0.84068  Biso   1.000  N
  N19      1.0000 0.25000  0.75000  0.48424  Biso   1.000  N
  N20      1.0000 0.75000  0.25000  0.51576  Biso   1.000  N
