data_image0
_cell_length_a       16.991
_cell_length_b       16.991
_cell_length_c       16.991
_cell_angle_alpha    90
_cell_angle_beta     90
_cell_angle_gamma    90

_symmetry_space_group_name_H-M    "P 1"
_symmetry_int_tables_number       1

loop_
  _symmetry_equiv_pos_as_xyz
  'x, y, z'

loop_
  _atom_site_label
  _atom_site_occupancy
  _atom_site_fract_x
  _atom_site_fract_y
  _atom_site_fract_z
  _atom_site_thermal_displace_type
  _atom_site_B_iso_or_equiv
  _atom_site_type_symbol
  C1       1.0000 0.37705  0.00790  0.62295  Biso   1.000  C
  C2       1.0000 0.36851  0.89914  0.68750  Biso   1.000  C
  H1       1.0000 0.37770  0.85890  0.72340  Biso   1.000  H
  C3       1.0000 0.40610  0.08550  0.59390  Biso   1.000  C
  N1       1.0000 0.40973  0.96832  0.68278  Biso   1.000  N
  Zn1      1.0000 0.50000  0.00000  0.75000  Biso   1.000  Zn
  C4       1.0000 0.00790  0.62295  0.37705  Biso   1.000  C
  C5       1.0000 0.89914  0.63149  0.31250  Biso   1.000  C
  H2       1.0000 0.85890  0.62230  0.27660  Biso   1.000  H
  C6       1.0000 0.08550  0.59390  0.40610  Biso   1.000  C
  N2       1.0000 0.96832  0.59027  0.31722  Biso   1.000  N
  Zn2      1.0000 0.00000  0.50000  0.25000  Biso   1.000  Zn
  C7       1.0000 0.62295  0.99210  0.62295  Biso   1.000  C
  C8       1.0000 0.63149  0.10086  0.68750  Biso   1.000  C
  H3       1.0000 0.62230  0.14110  0.72340  Biso   1.000  H
  C9       1.0000 0.59390  0.91450  0.59390  Biso   1.000  C
  H4       1.0000 0.54130  0.92020  0.57430  Biso   1.000  H
  H5       1.0000 0.59420  0.87720  0.63640  Biso   1.000  H
  H6       1.0000 0.62760  0.89610  0.55250  Biso   1.000  H
  N3       1.0000 0.59027  0.03168  0.68278  Biso   1.000  N
  C10      1.0000 0.99210  0.37705  0.37705  Biso   1.000  C
  C11      1.0000 0.10086  0.36851  0.31250  Biso   1.000  C
  H7       1.0000 0.14110  0.37770  0.27660  Biso   1.000  H
  C12      1.0000 0.91450  0.40610  0.40610  Biso   1.000  C
  H8       1.0000 0.92020  0.45870  0.42570  Biso   1.000  H
  H9       1.0000 0.87720  0.40580  0.36360  Biso   1.000  H
  H10      1.0000 0.89610  0.37240  0.44750  Biso   1.000  H
  N4       1.0000 0.03168  0.40973  0.31722  Biso   1.000  N
  C13      1.0000 0.37705  0.99210  0.37705  Biso   1.000  C
  C14      1.0000 0.36851  0.10086  0.31250  Biso   1.000  C
  H11      1.0000 0.37770  0.14110  0.27660  Biso   1.000  H
  C15      1.0000 0.40610  0.91450  0.40610  Biso   1.000  C
  N5       1.0000 0.40973  0.03168  0.31722  Biso   1.000  N
  Zn3      1.0000 0.50000  0.00000  0.25000  Biso   1.000  Zn
  C16      1.0000 0.99210  0.62295  0.62295  Biso   1.000  C
  C17      1.0000 0.10086  0.63149  0.68750  Biso   1.000  C
  H12      1.0000 0.14110  0.62230  0.72340  Biso   1.000  H
  C18      1.0000 0.91450  0.59390  0.59390  Biso   1.000  C
  N6       1.0000 0.03168  0.59027  0.68278  Biso   1.000  N
  Zn4      1.0000 0.00000  0.50000  0.75000  Biso   1.000  Zn
  C19      1.0000 0.62295  0.00790  0.37705  Biso   1.000  C
  C20      1.0000 0.63149  0.89914  0.31250  Biso   1.000  C
  H13      1.0000 0.62230  0.85890  0.27660  Biso   1.000  H
  C21      1.0000 0.59390  0.08550  0.40610  Biso   1.000  C
  H14      1.0000 0.54130  0.07980  0.42570  Biso   1.000  H
  H15      1.0000 0.59420  0.12280  0.36360  Biso   1.000  H
  H16      1.0000 0.62760  0.10390  0.44750  Biso   1.000  H
  N7       1.0000 0.59027  0.96832  0.31722  Biso   1.000  N
  C22      1.0000 0.00790  0.37705  0.62295  Biso   1.000  C
  C23      1.0000 0.89914  0.36851  0.68750  Biso   1.000  C
  H17      1.0000 0.85890  0.37770  0.72340  Biso   1.000  H
  C24      1.0000 0.08550  0.40610  0.59390  Biso   1.000  C
  H18      1.0000 0.07980  0.45870  0.57430  Biso   1.000  H
  H19      1.0000 0.12280  0.40580  0.63640  Biso   1.000  H
  H20      1.0000 0.10390  0.37240  0.55250  Biso   1.000  H
  N8       1.0000 0.96832  0.40973  0.68278  Biso   1.000  N
  C25      1.0000 0.62295  0.37705  0.00790  Biso   1.000  C
  C26      1.0000 0.68750  0.36851  0.89914  Biso   1.000  C
  H21      1.0000 0.72340  0.37770  0.85890  Biso   1.000  H
  C27      1.0000 0.59390  0.40610  0.08550  Biso   1.000  C
  N9       1.0000 0.68278  0.40973  0.96832  Biso   1.000  N
  Zn5      1.0000 0.75000  0.50000  0.00000  Biso   1.000  Zn
  C28      1.0000 0.37705  0.37705  0.99210  Biso   1.000  C
  C29      1.0000 0.36851  0.31250  0.10086  Biso   1.000  C
  H22      1.0000 0.37770  0.27660  0.14110  Biso   1.000  H
  C30      1.0000 0.40610  0.40610  0.91450  Biso   1.000  C
  H23      1.0000 0.45870  0.42570  0.92020  Biso   1.000  H
  H24      1.0000 0.40580  0.36360  0.87720  Biso   1.000  H
  H25      1.0000 0.37240  0.44750  0.89610  Biso   1.000  H
  N10      1.0000 0.40973  0.31722  0.03168  Biso   1.000  N
  Zn6      1.0000 0.50000  0.25000  0.00000  Biso   1.000  Zn
  C31      1.0000 0.37705  0.62295  0.00790  Biso   1.000  C
  C32      1.0000 0.31250  0.63149  0.89914  Biso   1.000  C
  H26      1.0000 0.27660  0.62230  0.85890  Biso   1.000  H
  C33      1.0000 0.40610  0.59390  0.08550  Biso   1.000  C
  N11      1.0000 0.31722  0.59027  0.96832  Biso   1.000  N
  Zn7      1.0000 0.25000  0.50000  0.00000  Biso   1.000  Zn
  C34      1.0000 0.62295  0.62295  0.99210  Biso   1.000  C
  C35      1.0000 0.63149  0.68750  0.10086  Biso   1.000  C
  H27      1.0000 0.62230  0.72340  0.14110  Biso   1.000  H
  C36      1.0000 0.59390  0.59390  0.91450  Biso   1.000  C
  H28      1.0000 0.54130  0.57430  0.92020  Biso   1.000  H
  H29      1.0000 0.59420  0.63640  0.87720  Biso   1.000  H
  H30      1.0000 0.62760  0.55250  0.89610  Biso   1.000  H
  N12      1.0000 0.59027  0.68278  0.03168  Biso   1.000  N
  Zn8      1.0000 0.50000  0.75000  0.00000  Biso   1.000  Zn
  C37      1.0000 0.68750  0.63149  0.10086  Biso   1.000  C
  H31      1.0000 0.72340  0.62230  0.14110  Biso   1.000  H
  N13      1.0000 0.68278  0.59027  0.03168  Biso   1.000  N
  C38      1.0000 0.63149  0.31250  0.89914  Biso   1.000  C
  H32      1.0000 0.62230  0.27660  0.85890  Biso   1.000  H
  H33      1.0000 0.54130  0.42570  0.07980  Biso   1.000  H
  H34      1.0000 0.59420  0.36360  0.12280  Biso   1.000  H
  H35      1.0000 0.62760  0.44750  0.10390  Biso   1.000  H
  N14      1.0000 0.59027  0.31722  0.96832  Biso   1.000  N
  C39      1.0000 0.31250  0.36851  0.10086  Biso   1.000  C
  H36      1.0000 0.27660  0.37770  0.14110  Biso   1.000  H
  N15      1.0000 0.31722  0.40973  0.03168  Biso   1.000  N
  C40      1.0000 0.36851  0.68750  0.89914  Biso   1.000  C
  H37      1.0000 0.37770  0.72340  0.85890  Biso   1.000  H
  H38      1.0000 0.45870  0.57430  0.07980  Biso   1.000  H
  H39      1.0000 0.40580  0.63640  0.12280  Biso   1.000  H
  H40      1.0000 0.37240  0.55250  0.10390  Biso   1.000  H
  N16      1.0000 0.40973  0.68278  0.96832  Biso   1.000  N
  C41      1.0000 0.89914  0.68750  0.36851  Biso   1.000  C
  H41      1.0000 0.85890  0.72340  0.37770  Biso   1.000  H
  H42      1.0000 0.07980  0.57430  0.45870  Biso   1.000  H
  H43      1.0000 0.12280  0.63640  0.40580  Biso   1.000  H
  H44      1.0000 0.10390  0.55250  0.37240  Biso   1.000  H
  N17      1.0000 0.96832  0.68278  0.40973  Biso   1.000  N
  Zn9      1.0000 0.00000  0.75000  0.50000  Biso   1.000  Zn
  C42      1.0000 0.89914  0.31250  0.63149  Biso   1.000  C
  H45      1.0000 0.85890  0.27660  0.62230  Biso   1.000  H
  N18      1.0000 0.96832  0.31722  0.59027  Biso   1.000  N
  Zn10     1.0000 0.00000  0.25000  0.50000  Biso   1.000  Zn
  C43      1.0000 0.31250  0.10086  0.36851  Biso   1.000  C
  H46      1.0000 0.27660  0.14110  0.37770  Biso   1.000  H
  H47      1.0000 0.42570  0.92020  0.45870  Biso   1.000  H
  H48      1.0000 0.36360  0.87720  0.40580  Biso   1.000  H
  H49      1.0000 0.44750  0.89610  0.37240  Biso   1.000  H
  N19      1.0000 0.31722  0.03168  0.40973  Biso   1.000  N
  Zn11     1.0000 0.25000  0.00000  0.50000  Biso   1.000  Zn
  C44      1.0000 0.10086  0.68750  0.63149  Biso   1.000  C
  H50      1.0000 0.14110  0.72340  0.62230  Biso   1.000  H
  H51      1.0000 0.92020  0.57430  0.54130  Biso   1.000  H
  H52      1.0000 0.87720  0.63640  0.59420  Biso   1.000  H
  H53      1.0000 0.89610  0.55250  0.62760  Biso   1.000  H
  N20      1.0000 0.03168  0.68278  0.59027  Biso   1.000  N
  C45      1.0000 0.68750  0.89914  0.36851  Biso   1.000  C
  H54      1.0000 0.72340  0.85890  0.37770  Biso   1.000  H
  N21      1.0000 0.68278  0.96832  0.40973  Biso   1.000  N
  Zn12     1.0000 0.75000  0.00000  0.50000  Biso   1.000  Zn
  C46      1.0000 0.10086  0.31250  0.36851  Biso   1.000  C
  H55      1.0000 0.14110  0.27660  0.37770  Biso   1.000  H
  N22      1.0000 0.03168  0.31722  0.40973  Biso   1.000  N
  C47      1.0000 0.31250  0.89914  0.63149  Biso   1.000  C
  H56      1.0000 0.27660  0.85890  0.62230  Biso   1.000  H
  H57      1.0000 0.42570  0.07980  0.54130  Biso   1.000  H
  H58      1.0000 0.36360  0.12280  0.59420  Biso   1.000  H
  H59      1.0000 0.44750  0.10390  0.62760  Biso   1.000  H
  N23      1.0000 0.31722  0.96832  0.59027  Biso   1.000  N
  C48      1.0000 0.68750  0.10086  0.63149  Biso   1.000  C
  H60      1.0000 0.72340  0.14110  0.62230  Biso   1.000  H
  N24      1.0000 0.68278  0.03168  0.59027  Biso   1.000  N
  C49      1.0000 0.87705  0.50790  0.12295  Biso   1.000  C
  C50      1.0000 0.86851  0.39914  0.18750  Biso   1.000  C
  H61      1.0000 0.87770  0.35890  0.22340  Biso   1.000  H
  C51      1.0000 0.90610  0.58550  0.09390  Biso   1.000  C
  H62      1.0000 0.95870  0.57980  0.07430  Biso   1.000  H
  H63      1.0000 0.90580  0.62280  0.13640  Biso   1.000  H
  H64      1.0000 0.87240  0.60390  0.05250  Biso   1.000  H
  N25      1.0000 0.90973  0.46832  0.18278  Biso   1.000  N
  C52      1.0000 0.50790  0.12295  0.87705  Biso   1.000  C
  C53      1.0000 0.39914  0.13149  0.81250  Biso   1.000  C
  H65      1.0000 0.35890  0.12230  0.77660  Biso   1.000  H
  C54      1.0000 0.58550  0.09390  0.90610  Biso   1.000  C
  N26      1.0000 0.46832  0.09027  0.81722  Biso   1.000  N
  C55      1.0000 0.12295  0.49210  0.12295  Biso   1.000  C
  C56      1.0000 0.13149  0.60086  0.18750  Biso   1.000  C
  H66      1.0000 0.12230  0.64110  0.22340  Biso   1.000  H
  C57      1.0000 0.09390  0.41450  0.09390  Biso   1.000  C
  H67      1.0000 0.04130  0.42020  0.07430  Biso   1.000  H
  H68      1.0000 0.09420  0.37720  0.13640  Biso   1.000  H
  H69      1.0000 0.12760  0.39610  0.05250  Biso   1.000  H
  N27      1.0000 0.09027  0.53168  0.18278  Biso   1.000  N
  C58      1.0000 0.49210  0.87705  0.87705  Biso   1.000  C
  C59      1.0000 0.60086  0.86851  0.81250  Biso   1.000  C
  H70      1.0000 0.64110  0.87770  0.77660  Biso   1.000  H
  C60      1.0000 0.41450  0.90610  0.90610  Biso   1.000  C
  H71      1.0000 0.42020  0.95870  0.92570  Biso   1.000  H
  H72      1.0000 0.37720  0.90580  0.86360  Biso   1.000  H
  H73      1.0000 0.39610  0.87240  0.94750  Biso   1.000  H
  N28      1.0000 0.53168  0.90973  0.81722  Biso   1.000  N
  C61      1.0000 0.87705  0.49210  0.87705  Biso   1.000  C
  C62      1.0000 0.86851  0.60086  0.81250  Biso   1.000  C
  H74      1.0000 0.87770  0.64110  0.77660  Biso   1.000  H
  C63      1.0000 0.90610  0.41450  0.90610  Biso   1.000  C
  H75      1.0000 0.95870  0.42020  0.92570  Biso   1.000  H
  H76      1.0000 0.90580  0.37720  0.86360  Biso   1.000  H
  H77      1.0000 0.87240  0.39610  0.94750  Biso   1.000  H
  N29      1.0000 0.90973  0.53168  0.81722  Biso   1.000  N
  C64      1.0000 0.49210  0.12295  0.12295  Biso   1.000  C
  C65      1.0000 0.60086  0.13149  0.18750  Biso   1.000  C
  H78      1.0000 0.64110  0.12230  0.22340  Biso   1.000  H
  C66      1.0000 0.41450  0.09390  0.09390  Biso   1.000  C
  N30      1.0000 0.53168  0.09027  0.18278  Biso   1.000  N
  C67      1.0000 0.12295  0.50790  0.87705  Biso   1.000  C
  C68      1.0000 0.13149  0.39914  0.81250  Biso   1.000  C
  H79      1.0000 0.12230  0.35890  0.77660  Biso   1.000  H
  C69      1.0000 0.09390  0.58550  0.90610  Biso   1.000  C
  N31      1.0000 0.09027  0.46832  0.81722  Biso   1.000  N
  C70      1.0000 0.50790  0.87705  0.12295  Biso   1.000  C
  C71      1.0000 0.39914  0.86851  0.18750  Biso   1.000  C
  H80      1.0000 0.35890  0.87770  0.22340  Biso   1.000  H
  C72      1.0000 0.58550  0.90610  0.09390  Biso   1.000  C
  N32      1.0000 0.46832  0.90973  0.18278  Biso   1.000  N
  C73      1.0000 0.12295  0.87705  0.50790  Biso   1.000  C
  C74      1.0000 0.18750  0.86851  0.39914  Biso   1.000  C
  H81      1.0000 0.22340  0.87770  0.35890  Biso   1.000  H
  C75      1.0000 0.09390  0.90610  0.58550  Biso   1.000  C
  N33      1.0000 0.18278  0.90973  0.46832  Biso   1.000  N
  C76      1.0000 0.87705  0.87705  0.49210  Biso   1.000  C
  C77      1.0000 0.86851  0.81250  0.60086  Biso   1.000  C
  H82      1.0000 0.87770  0.77660  0.64110  Biso   1.000  H
  C78      1.0000 0.90610  0.90610  0.41450  Biso   1.000  C
  H83      1.0000 0.95870  0.92570  0.42020  Biso   1.000  H
  H84      1.0000 0.90580  0.86360  0.37720  Biso   1.000  H
  H85      1.0000 0.87240  0.94750  0.39610  Biso   1.000  H
  N34      1.0000 0.90973  0.81722  0.53168  Biso   1.000  N
  C79      1.0000 0.87705  0.12295  0.50790  Biso   1.000  C
  C80      1.0000 0.81250  0.13149  0.39914  Biso   1.000  C
  H86      1.0000 0.77660  0.12230  0.35890  Biso   1.000  H
  C81      1.0000 0.90610  0.09390  0.58550  Biso   1.000  C
  N35      1.0000 0.81722  0.09027  0.46832  Biso   1.000  N
  C82      1.0000 0.12295  0.12295  0.49210  Biso   1.000  C
  C83      1.0000 0.13149  0.18750  0.60086  Biso   1.000  C
  H87      1.0000 0.12230  0.22340  0.64110  Biso   1.000  H
  C84      1.0000 0.09390  0.09390  0.41450  Biso   1.000  C
  H88      1.0000 0.04130  0.07430  0.42020  Biso   1.000  H
  H89      1.0000 0.09420  0.13640  0.37720  Biso   1.000  H
  H90      1.0000 0.12760  0.05250  0.39610  Biso   1.000  H
  N36      1.0000 0.09027  0.18278  0.53168  Biso   1.000  N
  C85      1.0000 0.18750  0.13149  0.60086  Biso   1.000  C
  H91      1.0000 0.22340  0.12230  0.64110  Biso   1.000  H
  N37      1.0000 0.18278  0.09027  0.53168  Biso   1.000  N
  C86      1.0000 0.13149  0.81250  0.39914  Biso   1.000  C
  H92      1.0000 0.12230  0.77660  0.35890  Biso   1.000  H
  H93      1.0000 0.04130  0.92570  0.57980  Biso   1.000  H
  H94      1.0000 0.09420  0.86360  0.62280  Biso   1.000  H
  H95      1.0000 0.12760  0.94750  0.60390  Biso   1.000  H
  N38      1.0000 0.09027  0.81722  0.46832  Biso   1.000  N
  C87      1.0000 0.81250  0.86851  0.60086  Biso   1.000  C
  H96      1.0000 0.77660  0.87770  0.64110  Biso   1.000  H
  N39      1.0000 0.81722  0.90973  0.53168  Biso   1.000  N
  C88      1.0000 0.86851  0.18750  0.39914  Biso   1.000  C
  H97      1.0000 0.87770  0.22340  0.35890  Biso   1.000  H
  H98      1.0000 0.95870  0.07430  0.57980  Biso   1.000  H
  H99      1.0000 0.90580  0.13640  0.62280  Biso   1.000  H
  H100     1.0000 0.87240  0.05250  0.60390  Biso   1.000  H
  N40      1.0000 0.90973  0.18278  0.46832  Biso   1.000  N
  C89      1.0000 0.39914  0.18750  0.86851  Biso   1.000  C
  H101     1.0000 0.35890  0.22340  0.87770  Biso   1.000  H
  H102     1.0000 0.57980  0.07430  0.95870  Biso   1.000  H
  H103     1.0000 0.62280  0.13640  0.90580  Biso   1.000  H
  H104     1.0000 0.60390  0.05250  0.87240  Biso   1.000  H
  N41      1.0000 0.46832  0.18278  0.90973  Biso   1.000  N
  C90      1.0000 0.39914  0.81250  0.13149  Biso   1.000  C
  H105     1.0000 0.35890  0.77660  0.12230  Biso   1.000  H
  H106     1.0000 0.57980  0.92570  0.04130  Biso   1.000  H
  H107     1.0000 0.62280  0.86360  0.09420  Biso   1.000  H
  H108     1.0000 0.60390  0.94750  0.12760  Biso   1.000  H
  N42      1.0000 0.46832  0.81722  0.09027  Biso   1.000  N
  C91      1.0000 0.81250  0.60086  0.86851  Biso   1.000  C
  H109     1.0000 0.77660  0.64110  0.87770  Biso   1.000  H
  N43      1.0000 0.81722  0.53168  0.90973  Biso   1.000  N
  C92      1.0000 0.60086  0.18750  0.13149  Biso   1.000  C
  H110     1.0000 0.64110  0.22340  0.12230  Biso   1.000  H
  H111     1.0000 0.42020  0.07430  0.04130  Biso   1.000  H
  H112     1.0000 0.37720  0.13640  0.09420  Biso   1.000  H
  H113     1.0000 0.39610  0.05250  0.12760  Biso   1.000  H
  N44      1.0000 0.53168  0.18278  0.09027  Biso   1.000  N
  C93      1.0000 0.18750  0.39914  0.86851  Biso   1.000  C
  H114     1.0000 0.22340  0.35890  0.87770  Biso   1.000  H
  H115     1.0000 0.07430  0.57980  0.95870  Biso   1.000  H
  H116     1.0000 0.13640  0.62280  0.90580  Biso   1.000  H
  H117     1.0000 0.05250  0.60390  0.87240  Biso   1.000  H
  N45      1.0000 0.18278  0.46832  0.90973  Biso   1.000  N
  C94      1.0000 0.60086  0.81250  0.86851  Biso   1.000  C
  H118     1.0000 0.64110  0.77660  0.87770  Biso   1.000  H
  N46      1.0000 0.53168  0.81722  0.90973  Biso   1.000  N
  C95      1.0000 0.81250  0.39914  0.13149  Biso   1.000  C
  H119     1.0000 0.77660  0.35890  0.12230  Biso   1.000  H
  N47      1.0000 0.81722  0.46832  0.09027  Biso   1.000  N
  C96      1.0000 0.18750  0.60086  0.13149  Biso   1.000  C
  H120     1.0000 0.22340  0.64110  0.12230  Biso   1.000  H
  N48      1.0000 0.18278  0.53168  0.09027  Biso   1.000  N
